It's a new file.
New line.
Edited line here!!
